Circuit: * C:\users\mg\My Documents\GitHub\SquareLab_Electronics\Simulations\Spice\scope_front_end\analog_bandwidth_bode_plot.asc


Date: Sun Apr 12 22:27:16 2020
Total elapsed time: 0.078 seconds.

tnom = 27
temp = 27
method = trap
totiter = 0
traniter = 0
tranpoints = 0
accept = 0
rejected = 0
matrix size = 5
fillins = 0
solver = Normal

