Circuit: * C:\users\mg\My Documents\GitHub\SquareLab\Simulations\Spice\scope_front_end\scope_front_end.asc

Instance "m:u2:6": Length shorter than recommended for a level 2 MOSFET.
Instance "m:u2:5": Length shorter than recommended for a level 2 MOSFET.
Direct Newton iteration failed to find .op point.  (Use ".option noopiter" to skip.)
Starting Gmin stepping
Gmin = 10
Gmin = 1.07374
Gmin = 0.115292
Gmin = 0.0123794
Gmin = 0.00132923
vernier = 0.5
vernier = 0.25
vernier = 0.125
vernier = 0.0625
Gmin = 0.00100083
vernier = 0.03125
vernier = 0.015625
vernier = 0.0078125
vernier = 0.00390625
vernier = 0.00195313
Gmin = 0.00100083
vernier = 0.000976563
vernier = 0.000488281
Gmin = 0
Gmin stepping failed

Starting source stepping with srcstepmethod=0
Source Step = 3.0303%
Source Step = 33.3333%
Source Step = 63.6364%
Source Step = 93.9394%
Source stepping succeeded in finding the operating point.


Date: Mon Apr  6 21:35:33 2020
Total elapsed time: 0.123 seconds.

tnom = 27
temp = 27
method = modified trap
totiter = 3861
traniter = 2114
tranpoints = 1056
accept = 1054
rejected = 2
matrix size = 51
fillins = 56
solver = Normal
Matrix Compiler1: 4.30 KB object code size  0.9/0.4/[0.2]
Matrix Compiler2: 5.10 KB object code size  0.6/0.9/[0.4]

